**$ENCRYPTED_LIB
**$INTERFACE
*$
* UCC28881
*****************************************************************************
* (C) Copyright 2015 Texas Instruments Incorporated. All rights reserved.                                            
*****************************************************************************
** This model is designed as an aid for customers of Texas Instruments.
** TI and its licensors and suppliers make no warranties, either expressed
** or implied, with respect to this model, including the warranties of 
** merchantability or fitness for a particular purpose.  The model is
** provided solely on an "as is" basis.  The entire risk as to its quality
** and performance is with the customer
*****************************************************************************
*
* This model is subject to change without notice. Texas Instruments
* Incorporated is not responsible for updating this model.
*
*****************************************************************************
*
** Released by: WEBENCH Design Center, Texas Instruments Inc.
* Part: UCC28881
* Date: 02DEC2015
* Model Type: TRANSIENT
* Simulator: PSPICE
* Simulator Version: 16.2.0.p001
* EVM Order Number: UCC28881EVM-680
* EVM Users Guide: SLUUBB6 – May 2015
* Datasheet: 
*
* Model Version: Final 1.00
*
*****************************************************************************
*
* Updates:
*
* Final 1.00
* Release to Web.
*
*****************************************************************************
.SUBCKT UCC28881_TRANS DRAIN FB GND_0 GND_1 HVIN NC VDD  
$CDNENCSTART
eee8c5c7a2bc4b01f045f303678664e7916da0bae22e8cb0bba041dd67c69ce448ea70148a9ac1670c8926c1ac5057c8ccfcd77bf87ca9dc38554d556f006c85
c778737e73fed5962531ce9df5eb0603461b185b9baabb6cc8f7e38dd2a57ffffece8d5fb9897df6338ecc7198451ac806fcec333fa5a806d603b9d25e696a0f
cbdc21de97ce7106bc27f931268b4061fa04f9362e4f375c80907ff03dfa9b550af70049ac6b5b9788a2db7ca49812f8b60305a69571cbc06c22f8338c178f33
9783ae8e4821c68fa223a4da0518f3d6d71742e71191210f47473dbbaef372ae4d95a9fcc1b485532d886e12f31331c4b4906e20e40e28e7f0ab070d3b17f8c1
8767f397bff4c3a731bbfa71d5efb6fe825b843a3aa9ddcde294bdc83ea7089db868c7574f5860a760db251c75783b956b31476fc0939ce33b8593e985599fdf
90622be202e4158d98c10f8e10da57478f3f7b59151bc472e7d09b7a132c56407bda83a75fa3bf17c732dbf3d4f664c50758f02ab79bea07e21bf669864d88b6
1f51937472c5f961239bdbe658d21d001a6e53c116d9d19478b30f70452e82b2120c87f6c578e3acd2bbd7e847d638e1e776e9b255bda08c8cc849879194c8ab
021166ac3753b7b82c4b5f36edab5d8523bd7fb7a7e60a0c22d886c99431a0a32bd9c134d1d852345fc0ee58bb1f493aa661767dddc2c9ebb27cab5f0a1b707c
4b6085f2012636675a0aa31c52cddba976617f42cd5d956b20b786c742acae4a771eb40794b7df480b053559e00f80f5a546564d25688c7237bef737d35abb8e
1da90d9a39f70c20706b807646b803719e846493845b991dc5a5575b8a074b0f56905b39e3da89742c4b5f36edab5d8523bd7fb7a7e60a0cb3cf17d89618eb5e
06a25173b9cfe677706b807646b80371b3e95c1cf0011a7f80330bd8d6f9eaf9ec2589f24ca48a8fe294bdc83ea7089db868c7574f5860a7ad051a92f413fae8
327c723a20c34697706b807646b80371b3e95c1cf0011a7fee3f66a8dbea3d5646ed5424b72711c7e294bdc83ea7089db868c7574f5860a7ad051a92f413fae8
b7c408d730b5857d706b807646b803715b60a47f647ca725b686a80b117e185d0fa14ae3c90b4e932c4b5f36edab5d8523bd7fb7a7e60a0cb3cf17d89618eb5e
cbdc21de97ce7106c12e63f53fc8b6c7fa04f9362e4f375c1659752c0e5b359966c1a49e3ebe560f9165c1a7c084161ed13e17c405aa4f35ace192b746972cc8
b60305a69571cbc0b045c149b70fbd51d71742e71191210f47473dbbaef372ae4d95a9fcc1b485532d886e12f31331c4b4906e20e40e28e7f0ab070d3b17f8c1
cdaa385411811e27bfd81d659a09e4b32637e9cac2aa5cea2cecad1ebf804c4bf467148f06ca8e43338ecc7198451ac806fcec333fa5a806d603b9d25e696a0f
e02aad8e8eb56a21706b807646b80371b3e95c1cf0011a7fd5544747a827e221b3e87f851295fd01e294bdc83ea7089db868c7574f5860a7ad051a92f413fae8
c6c17e06ddb91e2fbc27f931268b406123ab6b8ec232d78aa9b205dc55a2aaeccc5c8a293799fcd0ae42085c74f6e5d14c62d100076ced081d45a99f75075728
620932ec45ee75ac410dab5a20b1eedc61788ace651cd55fe809ddf041e56e9bbcefe63c4a9b1ce73a844d69df09c17dc36fbceb4ff895900c96ef7345be3792
66af982bc58bcb90df68a51caf77211a3421b3b1827e046b9bcf38ffe9c9dae208f37134cd79cdae884dde9190f871375799826678c117e4dda8af18a7919ff7
f2e3e6596c2ccdad16ce968e5c5767972c4b5f36edab5d8523bd7fb7a7e60a0c22d886c99431a0a32bd9c134d1d852345fc0ee58bb1f493a436ae836a922f80b
ee33063e8358835d98c10f8e10da574774e0ed3d5623dfdde2dae0198d372aab54e59eaba160bdc0c36fbceb4ff895905c30ff2497067699d47fa1d23c84925f
0758f02ab79bea0781d5360d0e44f50ce294bdc83ea7089db868c7574f5860a760db251c75783b956b31476fc0939ce35954e1a8c55022815c04ffdaac1a9d29
1799753e7e765da8eb87848776396383bd8fc99ad663fd2df54d1a3dd84b4d845b6aa4249afccd9e3421b3b1827e046b9bcf38ffe9c9dae2615621062d0b2aec
1799753e7e765da8cc0121b5e20e2076fa04f9362e4f375c437e1790818a6aab0af70049ac6b5b97febc5a511f336c0ebf1ee911780421dd38554d556f006c85
1799753e7e765da8bc27f931268b4061bd8fc99ad663fd2df5ecbff755f5a9071f57e61e1955d7b72aff93d4fc6d76903b79d1cd0e073c328cd948b09251dc3b
9f3e276281995ce2b2fc25ec69034723dffad4255220698b30985f5a6bad450c2f1520e5f7fbd800d94b84b76f64d2be37f8afaa55d017c95090b53db3846584
6d7154c8a272a77775963efd3ee34e162c4b5f36edab5d8523bd7fb7a7e60a0c22d886c99431a0a32bd9c134d1d852345fc0ee58bb1f493a436ae836a922f80b
cdaa385411811e27bfd81d659a09e4b32637e9cac2aa5ceafd49a287c76beca9cf3db11be0503885ae42085c74f6e5d14c62d100076ced081d45a99f75075728
9f3e276281995ce2b4ebc3be3a661516b1c14eaf79773d2684b93ded865ab3092c189dbdc08fc0f34452595b42e40add8d2a0e519e4c43470f91b21fc3ccb177
60a188d940e604c16594e2ecfdcb7f14d71742e71191210f47473dbbaef372ae4d95a9fcc1b485532d886e12f31331c4b4906e20e40e28e7f0ab070d3b17f8c1
bbf0a766f49a242c2637e9cac2aa5ceafd49a287c76beca9cf3db11be0503885ae42085c74f6e5d14c62d100076ced085e6b60c3b9195af43e99cacc641639b6
9f3e276281995ce2b0d63542a665f94588f9579e1e525b22600d344b337541ca6476f9b9e0ec50bf600d344b337541ca3eaef05f3be9035badd26c36380ec925
7662f9e929a451ee38380075bb5248d83421b3b1827e046b9bcf38ffe9c9dae208f37134cd79cdae884dde9190f871375799826678c117e4dda8af18a7919ff7
cdaa385411811e27bfd81d659a09e4b32637e9cac2aa5ceafd49a287c76beca9cf3db11be0503885ae42085c74f6e5d14c62d100076ced081d45a99f75075728
394197bedeb77a71ac73e51ea617102970398b788c8367ed079be54332ecb343d53698db8c1cb0e024fdfd9bb2e10b07421672f8ed614bf1e8fb7d1fcd6826d0
e0bee0f3fadd6724dd1bef0eb7f10b91079be54332ecb3431a36b4f98b9d0a82ae42085c74f6e5d14c62d100076ced085e6b60c3b9195af43e99cacc641639b6
93d3808648446fd7a60fd3951de4fe94729a14cc5f2119191ed74dc56d08115724fdfd9bb2e10b07421672f8ed614bf1ed1af96e7e151066bb79f8c7202c632d
9afa1f10a7f457eaa60fd3951de4fe946a046b1ea401c43e1ed74dc56d08115724fdfd9bb2e10b07421672f8ed614bf1ed1af96e7e151066bb79f8c7202c632d
cb2daf89abb6c16982d2442fe366db268999d91e96369425f00b0f0ff605a943e3c16f8f210dde67ff19a46963fb9e4b8318958aa75d4556dd0a70f33e2447ea
4e2689494256295447158635b18b6659e294bdc83ea7089db868c7574f5860a760db251c75783b956b31476fc0939ce35954e1a8c55022815c04ffdaac1a9d29
4b6085f2012636675a0aa31c52cddba976617f42cd5d956b20b786c742acae4a771eb40794b7df480b053559e00f80f5a546564d25688c7237bef737d35abb8e
cb2daf89abb6c1698e73b51ee5f47be28999d91e963694255bf1dabb810f7e85fa460eccc75cda6d88b96b7c831faa4a4f52237e05fcdaf425ed85a6c6b0785e
157dcbb6421b1256421672f8ed614bf1ed1af96e7e151066eeac3cef265f7e337d6ffda1d39d6fc62cd1123faa130c42eab934636be08e45fb5413043ddd6a77
4b6085f2012636675a0aa31c52cddba976617f42cd5d956b20b786c742acae4a771eb40794b7df480b053559e00f80f5a546564d25688c7237bef737d35abb8e
ddf70eae3b59290582f3e60d2b29a490d29798c07db1193d042f0c0c78bb0debae42085c74f6e5d14c62d100076ced085e6b60c3b9195af43e99cacc641639b6
247adf83393914b48548215614db6af3a155cb36acb1ccee2ddf6e490fe2f7c63421b3b1827e046b9bcf38ffe9c9dae208f37134cd79cdae848bcaf33ef50f93
201caebd9e79242d169bee98f775f05288ed0691c8dd180f93d307c5b852611f0af85befaaaeff526b574213c15e8d89da08215b84c2f259e9e6d1ede4c6d7d6
ae8a08f5990ef5ffff05eb167b820983644126c9831a96bd20b786c742acae4a771eb40794b7df480b053559e00f80f5a546564d25688c7237bef737d35abb8e
be933631531f96593421b3b1827e046b9bcf38ffe9c9dae208f37134cd79cdae884dde9190f871375799826678c117e4c1aa057efdbe38c422d50c5f22ad1eab
201caebd9e79242dc38aa6dac936016a88ed0691c8dd180f4cb8431fd59216a716f9118af43748426b574213c15e8d892cddd6756bcc917ca3a73112c3450219
ff05eb167b820983af399d32d282acb6ae42085c74f6e5d14c62d100076ced085e6b60c3b9195af461b5fb4b47241f409ec21d040458397840fe02e648ade3d9
a8cf4d6c3bc074564ee59a9786cedd480b699cd2aa275a55bb32e0fa5d34c55ce8475f63cf632ec0f79ed346fe02bf5d20b786c742acae4ad6901cb2a727bc81
247adf83393914b4c36f86d7f8415e313ef89048d495034b87a7fb68001a2538c9d813997f16e693d119468b2a691a2d7a96ecf5653d1868e89729e5d38ef58f
2ac9214a74892e6988f0760d5c55333bf68dbf429e0050c3883107f17595894036d1e40fa14987a697d0bdc16e1372b18dcea2cdd2d3d5ccd573267e41263c5c
dd06c2baef735cae2b1410deca799d73d71742e71191210f47473dbbaef372ae4d95a9fcc1b485532d886e12f31331c4b4906e20e40e28e7f0ab070d3b17f8c1
4b6085f2012636678ee5eab1ce21437b7b8bffad2dfc098763285b290822439120b786c742acae4a771eb40794b7df480b053559e00f80f564798aa29fa82dcc
7453bdf56a3ba0a5a0e938c77ef85915f34dc069681924a24cb8431fd59216a7ee8072d38e880544bf1ee911780421dd338ecc7198451ac8392591f8f765461c
2ac9214a74892e69e4f56613e9b5806aeb9c7813d3887b59dd0f957c26c29e7e93d307c5b852611f8ae4cb2879248d8f93d307c5b852611f19d157d8e0a6d444
b32eae440ae09a4785ca69fda8cf338aae42085c74f6e5d14c62d100076ced085e6b60c3b9195af461b5fb4b47241f409ec21d040458397840fe02e648ade3d9
cdaa385411811e27bfd81d659a09e4b32637e9cac2aa5ceafd49a287c76beca9cf3db11be0503885ae42085c74f6e5d14c62d100076ced081d45a99f75075728
2ac9214a74892e694acb8168779c1a8e574444327062f4a4b91ade6123c03602afc1bf5533fbc93893d307c5b852611fd2553cb239c18460f68995715fe000be
80858425fdad831f41b25d62d6f280172c4b5f36edab5d8523bd7fb7a7e60a0c22d886c99431a0a32bd9c134d1d852345fc0ee58bb1f493a436ae836a922f80b
600ecb750f7dd9cb36480dfed359de54e497783523a41bc28dcea2cdd2d3d5cc9783ae8e4821c68f44286f328a01b5597353264ebf8b05514faeff92adf05540
14116b5b1ff5095d3421b3b1827e046b9bcf38ffe9c9dae208f37134cd79cdae884dde9190f871375799826678c117e4c1aa057efdbe38c422d50c5f22ad1eab
2ac9214a74892e69e07bb94faa5220c20b699cd2aa275a55d82123ad2cf01904d6bcfd0251103ae4045a49f53e69fedf0d4229faf7d53de393c080c96d629157
8dcea2cdd2d3d5cc9783ae8e4821c68fbaa78b47fb353ab320b786c742acae4a771eb40794b7df480b053559e00f80f5a546564d25688c7237bef737d35abb8e
bbf0a766f49a242c2637e9cac2aa5cea2cecad1ebf804c4b55ae1019063fc52dc06d3dcd1a1bc87be294bdc83ea7089db868c7574f5860a7ad051a92f413fae8
a8cf4d6c3bc074567b4a6bbc8e3f9e4b3ef89048d495034b4ba470a29f1720462c4b5f36edab5d8523bd7fb7a7e60a0c22d886c99431a0a3a0131fbe9495a041
247adf83393914b4f6ac43e363a110958f564c5ac5923cd4c0ab8bf7d621103dbf1ee911780421dd338ecc7198451ac806fcec333fa5a806d603b9d25e696a0f
2ac9214a74892e69b4ebc3be3a661516c3d6d17bab93cfc2b225c62e62738bc0a00b437d4f230cb21f395168136303c888ae12a19eac7f0b75222f0c5a936296
4cb8431fd59216a7edb84ce1e1cafb6ae294bdc83ea7089db868c7574f5860a760db251c75783b956b31476fc0939ce35954e1a8c55022815c04ffdaac1a9d29
fd80f3b49cb1eb4b2907c7f9d9ea4b6688b96b7c831faa4a4f52237e05fcdaf4b31205aa407e75cd998fd920f4f159aa6824f5bcb04be3e6b5b209b668b9e573
a8cf4d6c3bc07456696d1ed34ddcb0363ef89048d495034ba00b437d4f230cb2f7729216938088a0bb0e86ffa7586a30e294bdc83ea7089d0c2a9f3aa1522010
340902c1590d2246f484efa1bd6d4ef0f7c856ffa5bf61fda4cc9119781f1b5ad71742e71191210f47473dbbaef372ae4d95a9fcc1b4855333230e465300e638
615a28c46d72374026c880f485e2ca345716525781725a1525e334b0e044fb7200d3e0b087c73744e294bdc83ea7089db868c7574f5860a7ad051a92f413fae8
8bf314ab8c034899a000d18f13048513b0c175bb13658343f9d5d99a24e77e8e573852200c82249e9a058f14f902a6c05810a241281d561746ea8cea436e63e0
b0eb42ca922cce592fbfcc2b872ff946201e68a108d87d3d749d13634498f34bc9322890ded6647b06d8794bcc87518ec0e8f5026e909ad81a4b3a4aa1a53d39
b5f1c17ee7956303338ecc7198451ac806fcec333fa5a80603d9eb7b7a1b951197042840895d9620507d3d25cce5577b1b362cf56f1e5721b518addcbf349866
955a1ec3f8857664aa400c666b09afd67eb0831c7ea9de416e55dcf26257787aa283932dc2f5d43e3f0234a601ef1c00be65b7c13d451c0de4e72beed32b1f99
5911b2e9db27761795d7fcca0b5012cce294bdc83ea7089db868c7574f5860a760db251c75783b956b31476fc0939ce35954e1a8c55022815c04ffdaac1a9d29
bbf0a766f49a242c2637e9cac2aa5cea2cecad1ebf804c4b55ae1019063fc52d25b1b5dd638810a2ae42085c74f6e5d14c62d100076ced081d45a99f75075728
bef61658e1a9368941ed8ca8d2bd65ecab1e363a6676a2aa9f06498bb201e5ed8de27718a90588933421b3b1827e046b9bcf38ffe9c9dae2615621062d0b2aec
955a1ec3f8857664c73aff2c1de9aa7a7eb0831c7ea9de418e0db6da219cd42aa734273571e8b331b92eec9d1f9b2b0286de10a5fc0946f20ff0374dbed407d1
4c31c8ca9f4c44dea3fd4d25f3e7aa41421672f8ed614bf1ed1af96e7e151066eeac3cef265f7e337d6ffda1d39d6fc62cd1123faa130c426adb0b55b009933a
fb07559f2e0580d6593fcd768fc5833d22642ce7f0d5d2116f3085441f0c7a2a3421b3b1827e046b9bcf38ffe9c9dae208f37134cd79cdae848bcaf33ef50f93
955a1ec3f8857664a26928fceb05f192577f745e73cdb86dab1e363a6676a2aad05afd3ff1966208f3dd2d1698344d87916e74e6e6f5bfd3933523a3e103396a
e61daee4614c96202c4b5f36edab5d8523bd7fb7a7e60a0c22d886c99431a0a32bd9c134d1d852345fc0ee58bb1f493aa661767dddc2c9ebb27cab5f0a1b707c
1888bef4844d6d3ad05afd3ff19662083745009ab97dbb84916e74e6e6f5bfd3326b7b4d1c26be945817f551786825e18318958aa75d4556dd0a70f33e2447ea
4e2689494256295447158635b18b6659e294bdc83ea7089db868c7574f5860a760db251c75783b956b31476fc0939ce35954e1a8c55022815c04ffdaac1a9d29
4b6085f2012636675a0aa31c52cddba976617f42cd5d956b20b786c742acae4a771eb40794b7df480b053559e00f80f5a546564d25688c7237bef737d35abb8e
955a1ec3f8857664a26928fceb05f192525f4881cdcee43cab1e363a6676a2aa3c17fe339b2ec145c3e673fb118e9dd3624d93501aee69de89962756baa0bd39
1888bef4844d6d3ad05afd3ff1966208e61daee4614c962095acc636d678e29a60a188d940e604c11933952b4dcad44ca68ba69006c80e09d9eda28d3f69b96f
0736b9aea252cd5465bd351ff9bed562e294bdc83ea7089db868c7574f5860a760db251c75783b956b31476fc0939ce35954e1a8c55022815c04ffdaac1a9d29
af35e77b7f6a703a9fe37f33290f4156a665d0fac02ce03ec2369fb4ccd03dc402efe57fcd43db99499591e57350904eae42085c74f6e5d191514b2f1176fa0a
955a1ec3f8857664a26928fceb05f192976633e3a662b0a8ab1e363a6676a2aafbd261394dd56104624d93501aee69de38b250aea64f1b7666a0fe4f064f79ca
c48d55430078d1642d5255fe0e0ee0d6338ecc7198451ac806fcec333fa5a80603d9eb7b7a1b951197042840895d9620507d3d25cce5577b8418dfd51a753f25
df8f9e8caf681eff8dcea2cdd2d3d5cc9783ae8e4821c68f44286f328a01b5597353264ebf8b05510736b9aea252cd5465bd351ff9bed5623988e02da2f7896e
955a1ec3f8857664a26928fceb05f192628e6c2a84cc65ddab1e363a6676a2aa624d93501aee69de38b250aea64f1b7638b250aea64f1b7666a0fe4f064f79ca
2b8b363babb57e6f29adc9487ef41912338ecc7198451ac806fcec333fa5a80603d9eb7b7a1b951197042840895d9620507d3d25cce5577b8418dfd51a753f25
df8f9e8caf681eff8dcea2cdd2d3d5cc9783ae8e4821c68f44286f328a01b5597353264ebf8b05510736b9aea252cd5465bd351ff9bed5623988e02da2f7896e
955a1ec3f8857664a26928fceb05f192a84ecbc7159c51adab1e363a6676a2aa3c17fe339b2ec145c3e673fb118e9dd3fbd261394dd5610466a0fe4f064f79ca
129a34d0a2a427ad2c4b5f36edab5d8523bd7fb7a7e60a0c22d886c99431a0a32bd9c134d1d852345fc0ee58bb1f493aa661767dddc2c9ebb27cab5f0a1b707c
1888bef4844d6d3ad05afd3ff1966208b19e38ab396f9bd995acc636d678e29a60a188d940e604c11933952b4dcad44ca68ba69006c80e09d9eda28d3f69b96f
0736b9aea252cd5465bd351ff9bed562e294bdc83ea7089db868c7574f5860a760db251c75783b956b31476fc0939ce35954e1a8c55022815c04ffdaac1a9d29
955a1ec3f8857664a26928fceb05f192e82f6bb07c49189cab1e363a6676a2aad05afd3ff1966208d4ea922d87729de3916e74e6e6f5bfd3933523a3e103396a
d53e23ada81520052c4b5f36edab5d8523bd7fb7a7e60a0c22d886c99431a0a32bd9c134d1d852345fc0ee58bb1f493aa661767dddc2c9ebb27cab5f0a1b707c
1888bef4844d6d3ad05afd3ff1966208aa1c520594834166916e74e6e6f5bfd3f2bba6326a4124883ce227defe2eb1ee6afa8ee8cf30b01235dfa420c2b83e28
184fb41f65a9a88f38380075bb5248d83421b3b1827e046b9bcf38ffe9c9dae208f37134cd79cdae884dde9190f871375799826678c117e4dda8af18a7919ff7
cdaa385411811e27bfd81d659a09e4b32637e9cac2aa5ceafd49a287c76beca9cf3db11be0503885ae42085c74f6e5d14c62d100076ced081d45a99f75075728
955a1ec3f8857664a26928fceb05f1925bd1d958b85c6337ab1e363a6676a2aafbd261394dd561043c17fe339b2ec1456343bc29386c278d89962756baa0bd39
1888bef4844d6d3ad05afd3ff19662083ba75b967c9859b995acc636d678e29a60a188d940e604c11933952b4dcad44ca68ba69006c80e09d9eda28d3f69b96f
0736b9aea252cd5465bd351ff9bed562e294bdc83ea7089db868c7574f5860a760db251c75783b956b31476fc0939ce35954e1a8c55022815c04ffdaac1a9d29
955a1ec3f8857664a26928fceb05f192af62c7e801e29edbab1e363a6676a2aa19eb0a63b4593ce06afa8ee8cf30b0129b6932b094577fd89a77647ed4d94287
d2bbd7e847d638e1f9160e96a49a6a05338ecc7198451ac806fcec333fa5a80603d9eb7b7a1b951197042840895d9620507d3d25cce5577b8418dfd51a753f25
cdaa385411811e27bfd81d659a09e4b32637e9cac2aa5ceafd49a287c76beca9cf3db11be0503885ae42085c74f6e5d14c62d100076ced081d45a99f75075728
6a61ea90b74fdf22eaac66ed005cf72f706b807646b803713f28c7bdea3517a102bf04ddcbe6d479710f626c2faf14a6338ecc7198451ac8392591f8f765461c
955a1ec3f8857664a26928fceb05f1926af56f2fcb564d81ab1e363a6676a2aa3c17fe339b2ec145c3e673fb118e9dd33c17fe339b2ec145181d03d03dd981fa
e801c32fcd33732de294bdc83ea7089db868c7574f5860a760db251c75783b956b31476fc0939ce35954e1a8c5502281080c27e9a675cbf607c7d8d42f122d92
1888bef4844d6d3ad05afd3ff19662083745009ab97dbb8495acc636d678e29a60a188d940e604c11933952b4dcad44ca68ba69006c80e09d9eda28d3f69b96f
0736b9aea252cd5465bd351ff9bed562e294bdc83ea7089db868c7574f5860a760db251c75783b956b31476fc0939ce35954e1a8c55022815c04ffdaac1a9d29
955a1ec3f8857664a26928fceb05f192a3691f164915ef96ab1e363a6676a2aa3c17fe339b2ec14595d5b0d83dc696e2624d93501aee69de2cdc1f8715bd49d0
1888bef4844d6d3ad05afd3ff1966208d53e23ada815200595acc636d678e29a60a188d940e604c11933952b4dcad44ca68ba69006c80e09d9eda28d3f69b96f
0736b9aea252cd5465bd351ff9bed562e294bdc83ea7089db868c7574f5860a760db251c75783b956b31476fc0939ce35954e1a8c55022815c04ffdaac1a9d29
955a1ec3f8857664a26928fceb05f192875ce25140b41e02ab1e363a6676a2aa624d93501aee69de3c17fe339b2ec1456343bc29386c278d7a121e4c30701f95
bb7849db42c2698e421672f8ed614bf1ed1af96e7e151066eeac3cef265f7e337d6ffda1d39d6fc62cd1123faa130c42eab934636be08e45fb5413043ddd6a77
1888bef4844d6d3abd407e73dd98d3b0624d93501aee69de63cb749a717cc7594dd575f9c48fd43a02efe57fcd43db99dc129d871e1b125647f5f48ffe077246
75963efd3ee34e16b0320154828380202c4b5f36edab5d8523bd7fb7a7e60a0c22d886c99431a0a32bd9c134d1d852345fc0ee58bb1f493a436ae836a922f80b
bbf0a766f49a242c2637e9cac2aa5ceafd49a287c76beca9cf3db11be0503885ae42085c74f6e5d14c62d100076ced085e6b60c3b9195af43e99cacc641639b6
955a1ec3f8857664a26928fceb05f19208e79cbf8de54de3ab1e363a6676a2aa3dce1e0fdf56bc10ce8cae2fb9a19e6ff2620cd5a5fd250df33f2cf27f39fd02
1888bef4844d6d3ad05afd3ff1966208f3dd2d1698344d8795acc636d678e29a60a188d940e604c11933952b4dcad44ca68ba69006c80e09d9eda28d3f69b96f
0736b9aea252cd5465bd351ff9bed562e294bdc83ea7089db868c7574f5860a760db251c75783b956b31476fc0939ce35954e1a8c55022815c04ffdaac1a9d29
955a1ec3f8857664a26928fceb05f192752f711301760933ab1e363a6676a2aad05afd3ff1966208cb6311bba4973ab2916e74e6e6f5bfd3933523a3e103396a
3ba75b967c9859b92c4b5f36edab5d8523bd7fb7a7e60a0c22d886c99431a0a32bd9c134d1d852345fc0ee58bb1f493aa661767dddc2c9ebb27cab5f0a1b707c
1888bef4844d6d3ad05afd3ff1966208c29e686b207c14e4916e74e6e6f5bfd374e74b4c8d7518295817f551786825e18318958aa75d4556dd0a70f33e2447ea
4e2689494256295447158635b18b6659e294bdc83ea7089db868c7574f5860a760db251c75783b956b31476fc0939ce35954e1a8c55022815c04ffdaac1a9d29
4b6085f2012636675a0aa31c52cddba976617f42cd5d956b20b786c742acae4a771eb40794b7df480b053559e00f80f5a546564d25688c7237bef737d35abb8e
955a1ec3f8857664a26928fceb05f192c0e5a451d7ac39f6ab1e363a6676a2aafbd261394dd561043c17fe339b2ec14595d5b0d83dc696e27a121e4c30701f95
bb7849db42c2698e421672f8ed614bf1ed1af96e7e151066eeac3cef265f7e337d6ffda1d39d6fc62cd1123faa130c42eab934636be08e45fb5413043ddd6a77
1888bef4844d6d3abd407e73dd98d3b0fbd261394dd5610463cb749a717cc7594dd575f9c48fd43a02efe57fcd43db99dc129d871e1b125647f5f48ffe077246
75963efd3ee34e16b0320154828380202c4b5f36edab5d8523bd7fb7a7e60a0c22d886c99431a0a32bd9c134d1d852345fc0ee58bb1f493a436ae836a922f80b
bbf0a766f49a242c2637e9cac2aa5ceafd49a287c76beca9cf3db11be0503885ae42085c74f6e5d14c62d100076ced085e6b60c3b9195af43e99cacc641639b6
955a1ec3f8857664a26928fceb05f19234c73dcbf92dd872ab1e363a6676a2aa3dce1e0fdf56bc10ce8cae2fb9a19e6f6afa8ee8cf30b0129471f66041c451f7
916e74e6e6f5bfd35c57e050319056832c4b5f36edab5d8523bd7fb7a7e60a0c22d886c99431a0a32bd9c134d1d852345fc0ee58bb1f493a436ae836a922f80b
1888bef4844d6d3ad05afd3ff1966208cb6311bba4973ab295acc636d678e29a60a188d940e604c11933952b4dcad44ca68ba69006c80e09d9eda28d3f69b96f
0736b9aea252cd5465bd351ff9bed562e294bdc83ea7089db868c7574f5860a760db251c75783b956b31476fc0939ce35954e1a8c55022815c04ffdaac1a9d29
955a1ec3f8857664a26928fceb05f1929a4459d2e32b3e2bab1e363a6676a2aa38b250aea64f1b763c17fe339b2ec145c3e673fb118e9dd37a121e4c30701f95
bb7849db42c2698e421672f8ed614bf1ed1af96e7e151066eeac3cef265f7e337d6ffda1d39d6fc62cd1123faa130c42eab934636be08e45fb5413043ddd6a77
1888bef4844d6d3abd407e73dd98d3b038b250aea64f1b7663cb749a717cc7594dd575f9c48fd43a02efe57fcd43db99dc129d871e1b125647f5f48ffe077246
75963efd3ee34e16b0320154828380202c4b5f36edab5d8523bd7fb7a7e60a0c22d886c99431a0a32bd9c134d1d852345fc0ee58bb1f493a436ae836a922f80b
bbf0a766f49a242c2637e9cac2aa5ceafd49a287c76beca9cf3db11be0503885ae42085c74f6e5d14c62d100076ced085e6b60c3b9195af43e99cacc641639b6
955a1ec3f8857664a26928fceb05f192ddb4b29aaeb56c85ab1e363a6676a2aa3dce1e0fdf56bc10ce8cae2fb9a19e6f6afa8ee8cf30b012d0c13b9c52e8307f
3ecf0caa81956299d42573eddd5d468de294bdc83ea7089db868c7574f5860a760db251c75783b956b31476fc0939ce35954e1a8c55022815c04ffdaac1a9d29
1888bef4844d6d3ad05afd3ff1966208aa1c52059483416695acc636d678e29a60a188d940e604c11933952b4dcad44ca68ba69006c80e09d9eda28d3f69b96f
0736b9aea252cd5465bd351ff9bed562e294bdc83ea7089db868c7574f5860a760db251c75783b956b31476fc0939ce35954e1a8c55022815c04ffdaac1a9d29
55a4530496c436bda84ecbc7159c51ad4933e45381e0163d74ba94951d9d65df1b5f199c209417ac949e0297405d1edce294bdc83ea7089d0c2a9f3aa1522010
bef61658e1a93689e12fc8b50753668aab1e363a6676a2aad16e0cdb89bfddd4c5566d17e998fa0cae42085c74f6e5d14c62d100076ced081d45a99f75075728
955a1ec3f8857664ad31ed9439a7f097af0e804c85ed03209f1141b1d99a57cfab41d6e13407953bb8ce12530a41696a7dca550267be38400b4ed1d4433ef614
a12804282497bc5c5077f74c9c7327e1e294bdc83ea7089db868c7574f5860a760db251c75783b956b31476fc0939ce35954e1a8c55022815c04ffdaac1a9d29
955a1ec3f88576644dfcf4d0b69c76817eb0831c7ea9de416e55dcf26257787a864aaf96f0887241c8fd1021c1e901f5e6cef19bd866a2984e381e6dad290ab6
df551062c0993b5d75963efd3ee34e162c4b5f36edab5d8523bd7fb7a7e60a0c22d886c99431a0a32bd9c134d1d852345fc0ee58bb1f493a436ae836a922f80b
cdaa385411811e27bfd81d659a09e4b32637e9cac2aa5ceafd49a287c76beca9cf3db11be0503885ae42085c74f6e5d14c62d100076ced081d45a99f75075728
955a1ec3f88576649346e7aa9c7b80fe7eb0831c7ea9de416e55dcf26257787a0556f9476b5520c5121ddd83243756c7975e3158190dc935e3fa4fff21e7e036
2fc6e3fad16363cea0f105c421d30e063421b3b1827e046b9bcf38ffe9c9dae208f37134cd79cdae884dde9190f871375799826678c117e4dda8af18a7919ff7
1888bef4844d6d3a620bb2862df6160207b30f097ce5484a75963efd3ee34e16b0320154828380204e26894942562954f47a15dc89514f6d1b943173670c3dc4
cf3db11be0503885ae42085c74f6e5d14c62d100076ced085e6b60c3b9195af461b5fb4b47241f409ec21d04045839782d25716a5097a55a2e68e2dafe4f19d0
955a1ec3f8857664415cab58d1eee23b7eb0831c7ea9de4108d9c1732d8a0d5231095a8617562c376af9d5413214ba985911b2e9db277617789dfe9e3750721c
f448aa8b445158d3c55c8187f39b70be338ecc7198451ac806fcec333fa5a80603d9eb7b7a1b951197042840895d9620507d3d25cce5577b8418dfd51a753f25
4b6085f2012636675a0aa31c52cddba976617f42cd5d956b20b786c742acae4a771eb40794b7df480b053559e00f80f5a546564d25688c7237bef737d35abb8e
55a4530496c436bdddb4b29aaeb56c854933e45381e0163d3b8c5de7b271019c1a36b4f98b9d0a82ae42085c74f6e5d14c62d100076ced081d45a99f75075728
1746721136228f85bc27f931268b4061b920d2604487973f7208b7762876b3ff1723ee116292bc418b8746d9011e5fc6f103918e9205aa799d6bedf9d0034ac8
955a1ec3f8857664c37aa27a62ede17c7eb0831c7ea9de415de2f36b8e14381ddc7cc45ff2f34d23a7a4a3845f6882caeb0c5e6f1059bc26b7b833aefaac8f2f
919189921f3246f5bd9e467946a3e036338ecc7198451ac806fcec333fa5a80603d9eb7b7a1b951197042840895d9620507d3d25cce5577b8418dfd51a753f25
fb07559f2e0580d6593fcd768fc5833d22642ce7f0d5d2116f3085441f0c7a2a3421b3b1827e046b9bcf38ffe9c9dae208f37134cd79cdae848bcaf33ef50f93
955a1ec3f8857664c034240fe77b81d76941249ed7359f06864aaf96f0887241318f2a9fb551173fe6cef19bd866a2989033a2f8a31ccce6534d925ed4e5dfb3
75963efd3ee34e16b0320154828380202c4b5f36edab5d8523bd7fb7a7e60a0c22d886c99431a0a32bd9c134d1d852345fc0ee58bb1f493a436ae836a922f80b
bbf0a766f49a242c2637e9cac2aa5ceafd49a287c76beca9cf3db11be0503885ae42085c74f6e5d14c62d100076ced085e6b60c3b9195af43e99cacc641639b6
955a1ec3f885766429f178b53302c63d6941249ed7359f06498465fa5a18bcf9864aaf96f08872415e511b5ce6b059406baa4c351fc5e3ad6c22f8338c178f33
9783ae8e4821c68fa223a4da0518f3d6d71742e71191210f47473dbbaef372ae4d95a9fcc1b485532d886e12f31331c4b4906e20e40e28e7f0ab070d3b17f8c1
8767f397bff4c3a731bbfa71d5efb6fe102372497787b35cd71742e71191210f47473dbbaef372ae4d95a9fcc1b485532d886e12f31331c4a5c876a3b1bc7617
4d42185c8ee61b2027920222bf9105df4933e45381e0163d565743ff0c75a017f5a0ebeb1c96581460877ff0912fae9e421672f8ed614bf1e8fb7d1fcd6826d0
bef61658e1a936899a4459d2e32b3e2bab1e363a6676a2aab92eec9d1f9b2b0209ab9814c7dd47b4d71742e71191210f47473dbbaef372ae48871b8182a2f55e
bef61658e1a93689e82f6bb07c49189cab1e363a6676a2aaa7a4a3845f6882ca5e1267df17fc185e3421b3b1827e046b9bcf38ffe9c9dae2615621062d0b2aec
4d482fe1482272cedca29065f7b4a6844933e45381e0163d8801bbfd82e68dcec708707fed20988762d766f77596a54bd71742e71191210f1e5e2d26dcc09c5b
955a1ec3f88576645e7a6b119618bc91a590e707fc7f6b2e64568844ff5e15add805573606bb34b22514ba7da3a6270bb454301e554f9fed7e30c9ee09b6b76c
5314e44f8dbca9aaf60ecfe3dff4fab2421672f8ed614bf1ed1af96e7e151066eeac3cef265f7e337d6ffda1d39d6fc62cd1123faa130c426adb0b55b009933a
cdaa385411811e27bfd81d659a09e4b32637e9cac2aa5ceafd49a287c76beca9cf3db11be0503885ae42085c74f6e5d14c62d100076ced081d45a99f75075728
955a1ec3f8857664a6d62f09833e41177eb0831c7ea9de419d19cb20bb5952c4a4fab3256f638b1d56dda60d6c94b4d7817a2be54a65ceceed3b7456d1b67ef9
d2bbd7e847d638e1f9160e96a49a6a05338ecc7198451ac806fcec333fa5a80603d9eb7b7a1b951197042840895d9620507d3d25cce5577b8418dfd51a753f25
cdaa385411811e27bfd81d659a09e4b32637e9cac2aa5ceafd49a287c76beca9cf3db11be0503885ae42085c74f6e5d14c62d100076ced081d45a99f75075728
bef61658e1a93689e5b303e784d2e757ab1e363a6676a2aad3de0d06e8a6ccc628a6446564e31d074a4202fe67e99b26e294bdc83ea7089d0c2a9f3aa1522010
4d482fe1482272ce27920222bf9105dfab1e363a6676a2aab5162f4d8ba89e8143f0820a7cb04b50c7b046eaa6ef7f33478a87bc5b8e6cf9d38aff4e12555a5d
f1f793fc4285c722fd4c87d05b243d4ae83cdc612e3577c7b8f1aedb2d286f91e6cef19bd866a298bac9687dafabe8203dcbc4eb54ba9aef1fc5d34c13e94afa
bb2988ccc43abbff2c4b5f36edab5d8523bd7fb7a7e60a0c22d886c99431a0a32bd9c134d1d852345fc0ee58bb1f493aa661767dddc2c9ebb27cab5f0a1b707c
955a1ec3f885766417c77d2679ccb2857eb0831c7ea9de4108d9c1732d8a0d528801bbfd82e68dce176b2064cef505adc17d75350fbfc92f0b3dddd5efab7821
e6cef19bd866a298c32fe4027e4f4d03d71742e71191210f47473dbbaef372ae4d95a9fcc1b485532d886e12f31331c4b4906e20e40e28e7f0ab070d3b17f8c1
1888bef4844d6d3a620bb2862df6160207b30f097ce5484a75963efd3ee34e16b0320154828380204e26894942562954f47a15dc89514f6d1b943173670c3dc4
cf3db11be0503885ae42085c74f6e5d14c62d100076ced085e6b60c3b9195af461b5fb4b47241f409ec21d04045839782d25716a5097a55a2e68e2dafe4f19d0
955a1ec3f88576640c13b61159c64da67eb0831c7ea9de41ebead049619b9fac3b09a1530af891901363500db89cc1a9967eaef50f89f54ed2c0ea702584563a
e776e9b255bda08cbfd81d659a09e4b32c4b5f36edab5d8523bd7fb7a7e60a0c22d886c99431a0a32bd9c134d1d852345fc0ee58bb1f493a436ae836a922f80b
8767f397bff4c3a731bbfa71d5efb6fe102372497787b35cd71742e71191210f47473dbbaef372ae4d95a9fcc1b485532d886e12f31331c4a5c876a3b1bc7617
bef61658e1a93689752f711301760933ab1e363a6676a2aaaa5e92932295ce53c6aebec088b9f857d71742e71191210f47473dbbaef372ae48871b8182a2f55e
955a1ec3f8857664e5b303e784d2e757ab1e363a6676a2aa6d31be6b22354ba01053799dbb1f85f1a403408d842aebb907c51d5ced87c307cd98fb5802ffca4b
56c3bbdbd93c7225e294bdc83ea7089db868c7574f5860a760db251c75783b956b31476fc0939ce35954e1a8c5502281080c27e9a675cbf607c7d8d42f122d92
a8781af426627ebb8dcea2cdd2d3d5cc9783ae8e4821c68f44286f328a01b5597353264ebf8b05513267e49cc155bb17aad0cae5ebf3019a6d3879bce80c2f2c
423629b4c25631fbeb87848776396383b920d2604487973f14222a84d4e995f965b4c4a9b5d4a5627be7ef11bde28756f8d3be278cfcb36f46ea8cea436e63e0
955a1ec3f88576642ab90d173e52de9476b6a9eb262b1cf7eb0cec4292ff59492bb7c5d0aae97a0320440d75149a5f346e39188869ec3243bec7ddf0a22f0557
83f9b620200790cbe93baeb95dc9e599e294bdc83ea7089db868c7574f5860a760db251c75783b956b31476fc0939ce35954e1a8c55022815c04ffdaac1a9d29
1888bef4844d6d3a620bb2862df6160207b30f097ce5484a75963efd3ee34e16b0320154828380204e26894942562954f47a15dc89514f6d1b943173670c3dc4
cf3db11be0503885ae42085c74f6e5d14c62d100076ced085e6b60c3b9195af461b5fb4b47241f409ec21d04045839782d25716a5097a55a2e68e2dafe4f19d0
955a1ec3f8857664f073822eabf5e0ad6941249ed7359f06aa12af2ce63d920b88a873dd97eb446063cb749a717cc759d8989d6d79dd6eb5d2c0ea702584563a
e776e9b255bda08cbfd81d659a09e4b32c4b5f36edab5d8523bd7fb7a7e60a0c22d886c99431a0a32bd9c134d1d852345fc0ee58bb1f493a436ae836a922f80b
8767f397bff4c3a731bbfa71d5efb6fe102372497787b35cd71742e71191210f47473dbbaef372ae4d95a9fcc1b485532d886e12f31331c4a5c876a3b1bc7617
955a1ec3f885766453630f7c2d96cd64af0e804c85ed032089fa7f3bd32c9baa299182848203c0d181b4eda9269e9fa86c9d3d7c7f10ec85be62ba1a43a46da6
00d2fbe7d54fb9a6421672f8ed614bf1ed1af96e7e151066eeac3cef265f7e337d6ffda1d39d6fc62cd1123faa130c42eab934636be08e45fb5413043ddd6a77
1888bef4844d6d3a5e476d895486197219de22c91d5c26d0dd65949b9e62b67b5911b2e9db277617a5257eba54077ab5021166ac3753b7b8838c94ce159e543a
bdca6001324300bf16298f0fa61c9739421672f8ed614bf1ed1af96e7e151066eeac3cef265f7e337d6ffda1d39d6fc62cd1123faa130c426adb0b55b009933a
955a1ec3f8857664d2954121025481777eb0831c7ea9de41e5596955ae9b2eace6cef19bd866a2983675f8d33c1693e88c8f7499dfa8f4668cd03a31088a8ef2
88b96b7c831faa4a41097083f6b3a209ae42085c74f6e5d14c62d100076ced085e6b60c3b9195af461b5fb4b47241f409ec21d040458397840fe02e648ade3d9
bbf0a766f49a242c2637e9cac2aa5cea2cecad1ebf804c4b55ae1019063fc52db57e4c57103492e9ae42085c74f6e5d14c62d100076ced081d45a99f75075728